
     RDKit          3D

 21 21  0  0  0  0  0  0  0  0999 V2000
    3.3498    1.2886    0.2390 C   0  0  0  0  0  0  0  0  0  0  0  0
   -2.3584   -1.8640   -0.4463 C   0  0  0  0  0  0  0  0  0  0  0  0
   -1.2116   -2.5895   -0.1812 C   0  0  0  0  0  0  0  0  0  0  0  0
   -2.2842   -0.4993   -0.3191 C   0  0  0  0  0  0  0  0  0  0  0  0
   -0.0519   -1.9490    0.1939 C   0  0  0  0  0  0  0  0  0  0  0  0
    2.1336    0.5522   -0.2016 C   0  0  0  0  0  0  0  0  0  0  0  0
   -1.1016    0.1240    0.0612 C   0  0  0  0  0  0  0  0  0  0  0  0
    0.0479   -0.6034    0.3269 C   0  0  0  0  0  0  0  0  0  0  0  0
   -1.0650    1.5736    0.1845 C   0  0  0  0  0  0  0  0  0  0  0  0
    1.8662    0.2994   -1.3866 O   0  0  0  0  0  0  0  0  0  0  0  0
   -0.0102    2.1625    0.5263 O   0  0  0  0  0  0  0  0  0  0  0  0
   -2.2033    2.3235   -0.0762 O   0  0  0  0  0  0  0  0  0  0  0  0
    1.1899    0.0847    0.7008 O   0  0  0  0  0  0  0  0  0  0  0  0
    4.1957    1.0971   -0.4291 H   0  0  0  0  0  0  0  0  0  0  0  0
    3.6553    0.9182    1.2555 H   0  0  0  0  0  0  0  0  0  0  0  0
    3.0892    2.3461    0.3700 H   0  0  0  0  0  0  0  0  0  0  0  0
   -3.2857   -2.3404   -0.7435 H   0  0  0  0  0  0  0  0  0  0  0  0
   -1.2867   -3.6591   -0.2858 H   0  0  0  0  0  0  0  0  0  0  0  0
   -3.1923    0.0582   -0.5303 H   0  0  0  0  0  0  0  0  0  0  0  0
    0.8102   -2.5572    0.3883 H   0  0  0  0  0  0  0  0  0  0  0  0
   -2.2868    3.2338    0.3534 H   0  0  0  0  0  0  0  0  0  0  0  0
  1  6  1  0
  2  3  2  0
  2  4  1  0
  3  5  1  0
  4  7  2  0
  5  8  2  0
  6 10  2  0
  6 13  1  0
  7  8  1  0
  7  9  1  0
  8 13  1  0
  9 11  2  0
  9 12  1  0
  1 14  1  0
  1 15  1  0
  1 16  1  0
  2 17  1  0
  3 18  1  0
  4 19  1  0
  5 20  1  0
 12 21  1  0
M  END
